/*--------------------------------*- C++ -*----------------------------------*\
  =========                 |
  \\      /  F ield         | OpenFOAM: The Open Source CFD Toolbox
   \\    /   O peration     | Website:  https://openfoam.org
    \\  /    A nd           | Version:  11
     \\/     M anipulation  |
\*---------------------------------------------------------------------------*/
FoamFile
{
    format      ascii;
    class       dictionary;
    object      fvSchemes;
}
// * * * * * * * * * * * * * * * * * * * * * * * * * * * * * * * * * * * * * //

ddtSchemes
{
    // For transient, replace steadyState, e.g. with Euler
    default         backward;
}

gradSchemes
{
    default         Gauss linear;
}

divSchemes
{
    default          none;

    div(phi,U)       Gauss limitedLinear 1;
    div(phi,(p|rho)) Gauss limitedLinear 1;
    div(phi,K)       Gauss linear;
    div(phi,e)       Gauss limitedLinear 1;

//    div(phi,k)      Gauss upwind;
//    div(phi,omega)  Gauss upwind;
//    div(phi,epsilon) Gauss upwind;
    div((nuEff*dev2(T(grad(U))))) Gauss linear;
}

laplacianSchemes
{
    default         Gauss linear corrected;
}

interpolationSchemes
{
    default         linear;
}

snGradSchemes
{
    default         corrected;
}

wallDist
{
    method meshWave;
}

// ************************************************************************* //
