/*--------------------------------*- C++ -*----------------------------------*\
  =========                 |
  \\      /  F ield         | OpenFOAM: The Open Source CFD Toolbox
   \\    /   O peration     | Website:  https://openfoam.org
    \\  /    A nd           | Version:  11
     \\/     M anipulation  |
\*---------------------------------------------------------------------------*/
FoamFile
{
    format      ascii;
    class       dictionary;
    object      fvSolution;
}
// * * * * * * * * * * * * * * * * * * * * * * * * * * * * * * * * * * * * * //

solvers
{
    p
    {
        solver          PCG;
        tolerance       1e-08;
        relTol          0.01;
        preconditioner  DIC;
    }

    pFinal
    {
        $p;
        relTol         0;
    }

    Phi
    {
        $p;
    }

    "(U|k|omega|epsilon|rho|e)"
    {
        solver          PBiCGStab;
        tolerance       1e-07;
        relTol          0.01;
        preconditioner  DILU;
    }

    "(U|k|omega|epsilon|rho|e)Final"
    {
        $U;
        relTol          0;
    }
}

"(PIMPLE|PISO)"
{
    nOuterCorrectors 3;
    nCorrectors     2;
    nNonOrthogonalCorrectors 1;
//    pRefCell        0;
//    pRefValue       0;
}


relaxationFactors
{
    equations
    {
        ".*"            1;
    }
}

// ************************************************************************* //
