/*--------------------------------*- C++ -*----------------------------------*\
  =========                 |
  \\      /  F ield         | OpenFOAM: The Open Source CFD Toolbox
   \\    /   O peration     | Website:  https://openfoam.org
    \\  /    A nd           | Version:  11
     \\/     M anipulation  |
\*---------------------------------------------------------------------------*/
FoamFile
{
    format      ascii;
    class       dictionary;
    object      porousZone;
}
// * * * * * * * * * * * * * * * * * * * * * * * * * * * * * * * * * * * * * //

darcyK #calc "(1 / (3.7e-10))";

porosity1
{
type           explicitPorositySource;

explicitPorositySourceCoeffs
{
    type           DarcyForchheimer;
    select         cellZone;
    cellZone       pZone; // Specify the name of the cellZone

    DarcyForchheimerCoeffs
    {
        // Negative coeffs are multiplied by largest positive coeff,
        // taking the magnitude, e.g. for -1000, coeff = |1e7*-1000| = 1e10

        d          [0 -2 0 0 0 0 0] ($darcyK $darcyK $darcyK);
        f          [0 -1 0 0 0 0 0] (0 0 0);

        coordinateSystem // Cartesian coordinates for the cellZone
        {
            x          (1 0 0);
            y          (0 1 0);
           #includeEtc "caseDicts/general/coordinateSystem/cartesianXY"
        }
    }

}
}

//************************************************************************** //
