/*--------------------------------*- C++ -*----------------------------------*\
  =========                 |
  \\      /  F ield         | OpenFOAM: The Open Source CFD Toolbox
   \\    /   O peration     | Website:  https://openfoam.org
    \\  /    A nd           | Version:  11
     \\/     M anipulation  |
\*---------------------------------------------------------------------------*/
FoamFile
{
    format      ascii;
    class       volScalarField;
    object      p;
}
// * * * * * * * * * * * * * * * * * * * * * * * * * * * * * * * * * * * * * //

#include "../include/vars"

dimensions      [1 -1 -2 0 0 0 0];

internalField   uniform $pTank;

boundaryField
{
    outlet
    {
        type            zeroGradient;
    }

    tank
    {
        type            zeroGradient;
    }

    "(front|back)"
    {
        type  wedge;
    }

//    #includeEtc "caseDicts/setConstraintTypes"
}

// ************************************************************************* //
